Version 4.1
SHEET 1 996 680
WIRE 336 -176 272 -176
WIRE 576 -160 400 -160
WIRE 336 -144 256 -144
WIRE 576 -32 576 -160
WIRE 720 -16 688 -16
WIRE 208 32 80 32
WIRE 352 32 288 32
WIRE 528 32 432 32
WIRE 688 32 688 -16
WIRE 688 32 624 32
WIRE 928 32 688 32
WIRE 80 128 80 32
WIRE 928 144 928 32
WIRE 688 160 688 32
WIRE -240 208 -240 144
WIRE -128 208 -128 144
WIRE 0 208 0 144
WIRE 80 320 80 208
WIRE 688 320 688 224
WIRE 688 320 80 320
WIRE 928 320 928 224
WIRE 928 320 688 320
WIRE -240 336 -240 288
WIRE -128 336 -128 288
WIRE 0 336 0 288
WIRE 688 352 688 320
FLAG 688 352 0
FLAG 272 -176 VCOM
IOPIN 272 -176 In
FLAG 720 -16 VCOM
IOPIN 720 -16 Out
FLAG -240 144 VIN1
IOPIN -240 144 Out
FLAG -128 144 VIN2
IOPIN -128 144 Out
FLAG -240 336 0
FLAG -128 336 0
FLAG 368 -192 VIN1
IOPIN 368 -192 Out
FLAG 368 -128 VIN2
IOPIN 368 -128 Out
FLAG 0 336 0
FLAG 0 144 VREF
IOPIN 0 144 Out
FLAG 256 -144 VREF
IOPIN 256 -144 In
SYMBOL voltage 80 112 R0
WINDOW 123 0 0 Left 0
WINDOW 39 0 0 Left 0
SYMATTR InstName V1
SYMATTR Value PULSE(0 12 0 0 0 1 0 0)
SYMBOL ind 192 48 R270
WINDOW 0 32 56 VTop 2
WINDOW 3 5 56 VBottom 2
SYMATTR InstName L1
SYMATTR Value 0.1
SYMBOL res 448 16 R90
WINDOW 0 0 56 VBottom 2
WINDOW 3 32 56 VTop 2
SYMATTR InstName R1
SYMATTR Value 10
SYMBOL cap 672 160 R0
SYMATTR InstName C1
SYMATTR Value 220µ
SYMBOL res 912 128 R0
SYMATTR InstName R2
SYMATTR Value 100
SYMBOL Contrib\\Toshiba\\bjt\\TMBT3904 528 -32 M90
SYMATTR InstName U1
SYMBOL TCM_p3_Guaman\\lm358 368 -224 R0
SYMATTR InstName U2
SYMBOL voltage -128 192 R0
WINDOW 123 0 0 Left 0
WINDOW 39 0 0 Left 0
SYMATTR InstName V2
SYMATTR Value -15
SYMBOL voltage -240 192 R0
WINDOW 123 0 0 Left 0
WINDOW 39 0 0 Left 0
SYMATTR InstName V3
SYMATTR Value 15
SYMBOL voltage 0 192 R0
WINDOW 123 0 0 Left 0
WINDOW 39 0 0 Left 0
SYMATTR InstName V4
SYMATTR Value 5
TEXT 776 -128 Left 2 !.tran 100m
